AeroDyn airfoil file.  Compatible with AeroDyn v13.0.
This file was generated automatically by HARP_Opt.
This data represents a 27 percent thick airfoil, and was interpolated between the airfoil data in the files FFA_0300.dat and FFA_0240.dat.
  1           Number of airfoil tables in this file
 1.460         Table ID parameter (Reynolds number in millions)
12.538         Stall angle (deg)
  0           Zero lift angle of attack (deg)
  0           Cn slope for zero lift (dimensionless)
  0           Cn at stall value for positive angle of attack
  0           Cn at stall value for negative angle of attack
  0           Angle of attack for minimum CD (deg)
  0           Minimum CD value
-180.000    0.0000    0.0164    -1.0000
-170.000    0.1642    0.0348    -1.0000
-160.000    0.3284    0.1316    -1.0000
-150.000    0.4926    0.2985    -1.0000
-140.000    0.5414    0.5033    -1.0000
-130.000    0.4956    0.7215    -1.0000
-120.000    0.4131    0.9270    -1.0000
-110.000    0.2956    1.0951    -1.0000
-100.000    0.1529    1.2058    -1.0000
-90.000    0.0000    1.2460    -1.0000
-80.000    -0.1529    1.2058    -1.0000
-70.000    -0.2956    1.0951    -1.0000
-60.000    -0.4131    0.9270    -1.0000
-50.000    -0.4956    0.7215    -1.0000
-40.000    -0.5414    0.5033    -1.0000
-30.000    -0.5020    0.3301    -1.0000
-20.000    -0.3609    0.2133    -0.9366
-10.000    -0.5884    0.2081    -3.6944
-4.179    -0.2431    0.0386    -1.3775
-2.720    -0.1083    0.0263    -1.1032
-0.854    0.0870    0.0240    -1.0108
0.000    0.1857    0.0260    -1.1248
0.402    0.2324    0.0270    -1.1784
0.803    0.2793    0.0273    -1.2354
1.204    0.3258    0.0265    -1.2940
1.603    0.3718    0.0257    -1.3524
2.001    0.4178    0.0250    -1.4125
2.397    0.4657    0.0245    -1.4732
2.790    0.5150    0.0245    -1.5292
3.180    0.5634    0.0245    -1.5844
3.567    0.6089    0.0248    -1.6384
3.951    0.6521    0.0252    -1.6917
4.330    0.6965    0.0251    -1.7438
4.705    0.7426    0.0251    -1.7944
5.075    0.7855    0.0251    -1.8472
5.440    0.8270    0.0257    -1.8997
5.799    0.8686    0.0251    -1.9513
6.153    0.9118    0.0247    -2.0074
6.500    0.9497    0.0251    -2.0626
6.840    0.9836    0.0256    -2.1229
7.173    1.0188    0.0260    -2.1838
7.499    1.0528    0.0265    -2.2445
7.817    1.0841    0.0274    -2.3086
8.127    1.1138    0.0286    -2.3711
8.429    1.1414    0.0297    -2.4317
8.722    1.1727    0.0292    -2.4903
9.007    1.2043    0.0281    -2.5470
9.282    1.2318    0.0281    -2.6002
9.547    1.2560    0.0294    -2.6516
9.803    1.2788    0.0310    -2.6737
10.048    1.3000    0.0326    -2.6720
10.283    1.3195    0.0350    -2.6704
10.508    1.3380    0.0376    -2.6689
10.722    1.3557    0.0400    -2.6674
10.925    1.3725    0.0422    -2.6660
11.116    1.3881    0.0441    -2.6647
11.296    1.4028    0.0459    -2.6614
11.465    1.4166    0.0478    -2.6549
11.622    1.4295    0.0495    -2.6488
11.767    1.4403    0.0513    -2.6431
11.899    1.4499    0.0532    -2.6380
12.020    1.4586    0.0549    -2.6333
12.128    1.4665    0.0565    -2.6291
12.224    1.4735    0.0579    -2.6254
12.307    1.4795    0.0591    -2.6222
12.377    1.4846    0.0601    -2.6194
12.435    1.4888    0.0611    -2.6172
12.480    1.4921    0.0617    -2.6154
12.512    1.4944    0.0622    -2.6142
12.532    1.4959    0.0625    -2.6134
12.538    1.4964    0.0626    -2.6132
12.555    1.4962    0.0636    -2.6125
12.605    1.4956    0.0665    -2.6106
12.688    1.4947    0.0715    -2.6073
12.805    1.4934    0.0785    -2.6028
12.954    1.4917    0.0875    -2.5970
13.137    1.4897    0.0986    -2.5966
13.352    1.4873    0.1117    -2.6044
13.600    1.4845    0.1269    -2.6133
13.880    1.4814    0.1443    -2.6234
14.192    1.4822    0.1611    -2.6347
14.535    1.4882    0.1771    -2.6472
14.910    1.5056    0.1899    -2.6665
15.316    1.5207    0.2032    -2.6901
15.753    1.5358    0.2168    -2.7156
16.219    1.5553    0.2302    -2.7428
16.715    1.5757    0.2455    -2.7647
17.240    1.5962    0.2622    -2.7850
17.794    1.6141    0.2794    -2.8064
18.376    1.6274    0.2983    -2.8274
18.985    1.6406    0.3187    -2.8418
19.620    1.6573    0.3391    -2.8569
20.282    1.6732    0.3607    -2.8104
20.969    1.6841    0.3830    -2.3043
21.681    1.6952    0.4064    -1.7799
22.417    1.7080    0.4311    -1.4381
23.176    1.7171    0.4571    -1.2045
23.957    1.7252    0.4842    -1.0000
24.760    1.7330    0.5132    -1.0000
25.584    1.7400    0.5433    -1.0000
26.428    1.7432    0.5751    -1.0000
27.291    1.7421    0.6077    -1.0000
28.172    1.7386    0.6399    -1.0000
29.070    1.7341    0.6717    -1.0000
29.985    1.7303    0.7046    -1.0000
30.915    1.7261    0.7383    -1.0000
31.860    1.7274    0.7750    -1.0000
32.818    1.7263    0.8124    -1.0000
33.789    1.7163    0.8501    -1.0000
34.771    1.7005    0.8886    -1.0000
35.764    1.6933    0.9266    -1.0000
36.766    1.6866    0.9643    -1.0000
37.777    1.6783    1.0015    -1.0000
38.795    1.6684    1.0382    -1.0000
39.819    1.6567    1.0743    -1.0000
40.849    1.6416    1.1125    -1.0000
41.883    1.6242    1.1507    -1.0000
42.920    1.6055    1.1878    -1.0000
43.960    1.5854    1.2241    -1.0000
45.000    1.5640    1.2592    -1.0000
50.000    1.4441    1.4116    -1.0000
60.000    1.1045    1.6135    -1.0000
70.000    0.6973    1.6385    -1.0000
80.000    0.2991    1.4722    -1.0000
90.000    0.0000    1.2460    -1.0000
100.000    -0.1529    1.2058    -1.0000
110.000    -0.2956    1.0951    -1.0000
120.000    -0.4131    0.9270    -1.0000
130.000    -0.4956    0.7215    -1.0000
140.000    -0.5414    0.5033    -1.0000
150.000    -0.4926    0.2985    -1.0000
160.000    -0.3284    0.1316    -1.0000
170.000    -0.1642    0.0348    -1.0000
180.000    0.0000    0.0164    -1.0000
EOT 1
