AeroDyn airfoil file.  Compatible with AeroDyn v13.0.
This file was generated automatically by HARP_Opt.
This data represents a 21.2 percent thick airfoil, and was interpolated between the airfoil data in the files FFA_0240.dat and FFA_0210.dat.
  1           Number of airfoil tables in this file
 1.758         Table ID parameter (Reynolds number in millions)
10.986         Stall angle (deg)
  0           Zero lift angle of attack (deg)
  0           Cn slope for zero lift (dimensionless)
  0           Cn at stall value for positive angle of attack
  0           Cn at stall value for negative angle of attack
  0           Angle of attack for minimum CD (deg)
  0           Minimum CD value
-180.000    0.0000    0.1910    -1.0000
-170.000    0.2878    0.2261    -1.0000
-160.000    0.5747    0.3293    -1.0000
-150.000    0.8579    0.4867    -1.0000
-140.000    0.7316    0.6772    -1.0000
-130.000    0.6131    0.8770    -1.0000
-120.000    0.4813    1.0601    -1.0000
-110.000    0.3286    1.2005    -1.0000
-100.000    0.1632    1.2802    -1.0000
-90.000    0.0000    1.2861    -1.0000
-80.000    -0.1632    1.2802    -1.0000
-70.000    -0.3286    1.2005    -1.0000
-60.000    -0.4813    1.0601    -1.0000
-50.000    -0.6131    0.8770    -1.0000
-40.000    -0.7316    0.6772    -1.0000
-30.000    -0.8581    0.4881    -1.0000
-20.000    -0.5989    0.2940    -0.7230
-10.000    -0.6226    0.1876    -4.3499
-3.490    -0.0963    0.0027    -1.1375
-2.280    0.0536    0.0034    -0.8441
-1.050    0.2039    0.0044    -0.8293
0.000    0.3336    0.0052    -0.9150
0.352    0.3772    0.0052    -0.9464
0.704    0.4207    0.0053    -0.9787
1.055    0.4640    0.0053    -1.0109
1.405    0.5070    0.0054    -1.0461
1.753    0.5497    0.0054    -1.0826
2.100    0.5924    0.0054    -1.1189
2.445    0.6347    0.0054    -1.1578
2.787    0.6767    0.0057    -1.2028
3.126    0.7183    0.0060    -1.2475
3.462    0.7592    0.0062    -1.2922
3.794    0.7996    0.0063    -1.3400
4.123    0.8396    0.0064    -1.3873
4.447    0.8789    0.0064    -1.4342
4.767    0.9178    0.0065    -1.4910
5.081    0.9563    0.0066    -1.5469
5.391    0.9943    0.0067    -1.6021
5.695    1.0312    0.0070    -1.6564
5.993    1.0670    0.0074    -1.7216
6.285    1.1019    0.0075    -1.7965
6.571    1.1359    0.0076    -1.8699
6.850    1.1691    0.0077    -1.9504
7.121    1.2013    0.0079    -2.0330
7.386    1.2326    0.0082    -2.1134
7.643    1.2629    0.0084    -2.1909
7.892    1.2920    0.0087    -2.2812
8.133    1.3199    0.0090    -2.3766
8.365    1.3466    0.0093    -2.4686
8.589    1.3724    0.0097    -2.5651
8.804    1.3964    0.0102    -2.6616
9.010    1.4185    0.0110    -2.7540
9.207    1.4397    0.0117    -2.8424
9.395    1.4589    0.0125    -2.9263
9.572    1.4768    0.0134    -3.0056
9.740    1.4927    0.0145    -3.0806
9.898    1.5077    0.0154    -3.1507
10.046    1.5217    0.0164    -3.2150
10.183    1.5343    0.0173    -3.2748
10.310    1.5452    0.0182    -3.3301
10.426    1.5551    0.0191    -3.3807
10.532    1.5642    0.0200    -3.4267
10.627    1.5717    0.0208    -3.4679
10.711    1.5779    0.0217    -3.5034
10.783    1.5833    0.0224    -3.5333
10.845    1.5880    0.0230    -3.5586
10.896    1.5918    0.0236    -3.5794
10.935    1.5947    0.0240    -3.5956
10.963    1.5968    0.0242    -3.6071
10.980    1.5981    0.0244    -3.6141
10.986    1.5986    0.0245    -3.6164
11.003    1.5994    0.0248    -3.6236
11.056    1.6022    0.0261    -3.6451
11.143    1.6068    0.0281    -3.6809
11.265    1.6133    0.0310    -3.7309
11.422    1.6208    0.0360    -3.7952
11.613    1.6269    0.0464    -3.8737
11.839    1.6322    0.0590    -3.9661
12.098    1.6335    0.0746    -4.0726
12.392    1.6451    0.0869    -4.1916
12.719    1.6615    0.0988    -4.2926
13.079    1.6810    0.1110    -4.4038
13.472    1.7030    0.1245    -4.5007
13.897    1.7246    0.1391    -4.5532
14.354    1.7479    0.1540    -4.6097
14.843    1.7730    0.1703    -4.6655
15.363    1.7958    0.1871    -4.7242
15.913    1.8150    0.2045    -4.7828
16.493    1.8306    0.2226    -4.8441
17.103    1.8447    0.2425    -4.9085
17.741    1.8551    0.2606    -5.0251
18.407    1.8706    0.2807    -5.1519
19.100    1.8948    0.3076    -4.4048
19.820    1.9192    0.3399    -3.1039
20.566    1.9424    0.3714    -2.1079
21.337    1.9647    0.4018    -1.2303
22.132    1.9864    0.4416    -1.0475
22.951    2.0076    0.4833    -1.0000
23.793    2.0278    0.5242    -1.0000
24.656    2.0472    0.5696    -1.0000
25.540    2.0660    0.6194    -1.0000
26.444    2.0826    0.6715    -1.0000
27.367    2.0969    0.7256    -1.0000
28.309    2.1163    0.7876    -1.0000
29.267    2.1350    0.8417    -1.0000
30.242    2.1457    0.8881    -1.0000
31.232    2.1406    0.9322    -1.0000
32.236    2.1338    0.9768    -1.0000
33.253    2.1244    1.0214    -1.0000
34.282    2.1122    1.0663    -1.0000
35.322    2.0973    1.1111    -1.0000
36.372    2.0799    1.1556    -1.0000
37.431    2.0600    1.1996    -1.0000
38.498    2.0376    1.2433    -1.0000
39.571    2.0128    1.2861    -1.0000
40.650    1.9868    1.3285    -1.0000
41.734    1.9593    1.3702    -1.0000
42.821    1.9298    1.4107    -1.0000
43.910    1.8984    1.4501    -1.0000
45.000    1.8652    1.4881    -1.0000
50.000    1.6929    1.6429    -1.0000
60.000    1.2630    1.8281    -1.0000
70.000    0.7779    1.8103    -1.0000
80.000    0.3240    1.5792    -1.0000
90.000    0.0004    1.2861    -1.0000
100.000    -0.1638    1.2804    -1.0000
110.000    -0.3282    1.2011    -1.0000
120.000    -0.4807    1.0593    -1.0000
130.000    -0.6133    0.8770    -1.0000
140.000    -0.7310    0.6773    -1.0000
150.000    -0.8542    0.4870    -1.0000
160.000    -0.5748    0.3302    -1.0000
170.000    -0.2878    0.2267    -1.0000
180.000    0.0000    0.1910    -1.0000
EOT 1
