AeroDyn airfoil file.  Compatible with AeroDyn v13.0.
This file was generated automatically by HARP_Opt.
This data represents a 26.7 percent thick airfoil, and was interpolated between the airfoil data in the files FFA_0300.dat and FFA_0240.dat.
  1           Number of airfoil tables in this file
 1.459         Table ID parameter (Reynolds number in millions)
12.825         Stall angle (deg)
  0           Zero lift angle of attack (deg)
  0           Cn slope for zero lift (dimensionless)
  0           Cn at stall value for positive angle of attack
  0           Cn at stall value for negative angle of attack
  0           Angle of attack for minimum CD (deg)
  0           Minimum CD value
-180.000    0.0000    0.0170    -1.0000
-170.000    0.1651    0.0373    -1.0000
-160.000    0.3302    0.1350    -1.0000
-150.000    0.4953    0.3015    -1.0000
-140.000    0.5430    0.5056    -1.0000
-130.000    0.4963    0.7231    -1.0000
-120.000    0.4133    0.9278    -1.0000
-110.000    0.2956    1.0952    -1.0000
-100.000    0.1528    1.2051    -1.0000
-90.000    0.0000    1.2446    -1.0000
-80.000    -0.1528    1.2051    -1.0000
-70.000    -0.2956    1.0952    -1.0000
-60.000    -0.4133    0.9278    -1.0000
-50.000    -0.4963    0.7231    -1.0000
-40.000    -0.5430    0.5056    -1.0000
-30.000    -0.5041    0.3321    -1.0000
-20.000    -0.3608    0.2145    -0.9152
-10.000    -0.6253    0.2203    -3.7599
-4.179    -0.2407    0.0388    -1.3891
-2.720    -0.1015    0.0257    -1.1004
-0.854    0.0972    0.0234    -1.0137
0.000    0.1955    0.0252    -1.1236
0.411    0.2431    0.0261    -1.1764
0.822    0.2908    0.0264    -1.2345
1.232    0.3381    0.0257    -1.2946
1.640    0.3848    0.0251    -1.3545
2.047    0.4316    0.0244    -1.4167
2.452    0.4799    0.0240    -1.4787
2.854    0.5294    0.0240    -1.5358
3.253    0.5781    0.0241    -1.5921
3.649    0.6244    0.0244    -1.6472
4.041    0.6682    0.0248    -1.7014
4.429    0.7134    0.0248    -1.7543
4.813    0.7600    0.0247    -1.8062
5.191    0.8035    0.0247    -1.8608
5.565    0.8458    0.0253    -1.9145
5.932    0.8878    0.0249    -1.9696
6.294    0.9314    0.0246    -2.0276
6.648    0.9702    0.0250    -2.0870
6.997    1.0054    0.0256    -2.1500
7.338    1.0416    0.0260    -2.2142
7.671    1.0767    0.0264    -2.2800
7.996    1.1092    0.0274    -2.3468
8.314    1.1402    0.0286    -2.4119
8.622    1.1690    0.0298    -2.4748
8.922    1.2007    0.0296    -2.5360
9.213    1.2326    0.0285    -2.5935
9.494    1.2608    0.0287    -2.6488
9.766    1.2862    0.0300    -2.6831
10.027    1.3100    0.0317    -2.6844
10.278    1.3325    0.0335    -2.6857
10.519    1.3531    0.0362    -2.6869
10.749    1.3727    0.0390    -2.6880
10.967    1.3913    0.0416    -2.6891
11.175    1.4091    0.0441    -2.6901
11.371    1.4257    0.0463    -2.6862
11.555    1.4412    0.0485    -2.6806
11.728    1.4557    0.0505    -2.6754
11.888    1.4693    0.0525    -2.6705
12.036    1.4809    0.0545    -2.6661
12.172    1.4914    0.0566    -2.6620
12.295    1.5009    0.0586    -2.6582
12.406    1.5094    0.0603    -2.6549
12.504    1.5169    0.0619    -2.6519
12.589    1.5235    0.0632    -2.6494
12.661    1.5290    0.0645    -2.6472
12.720    1.5335    0.0654    -2.6454
12.766    1.5371    0.0663    -2.6440
12.799    1.5396    0.0668    -2.6430
12.819    1.5411    0.0671    -2.6424
12.825    1.5416    0.0672    -2.6422
12.842    1.5417    0.0682    -2.6417
12.891    1.5418    0.0714    -2.6402
12.974    1.5421    0.0766    -2.6377
13.089    1.5425    0.0838    -2.6370
13.238    1.5430    0.0932    -2.6425
13.419    1.5436    0.1047    -2.6491
13.632    1.5442    0.1184    -2.6570
13.877    1.5450    0.1344    -2.6661
14.155    1.5459    0.1527    -2.6764
14.464    1.5503    0.1706    -2.6878
14.805    1.5596    0.1880    -2.7041
15.177    1.5780    0.2013    -2.7269
15.579    1.5949    0.2155    -2.7516
16.012    1.6126    0.2300    -2.7781
16.474    1.6340    0.2445    -2.8043
16.965    1.6562    0.2611    -2.8254
17.486    1.6787    0.2785    -2.8477
18.035    1.6988    0.2972    -2.8712
18.611    1.7144    0.3177    -2.8905
19.215    1.7287    0.3401    -2.9065
19.845    1.7487    0.3620    -2.9232
20.501    1.7664    0.3852    -2.7105
21.182    1.7792    0.4095    -2.2074
21.887    1.7923    0.4346    -1.6863
22.617    1.8062    0.4614    -1.4143
23.369    1.8168    0.4898    -1.1595
24.143    1.8262    0.5194    -1.0000
24.939    1.8347    0.5508    -1.0000
25.756    1.8419    0.5832    -1.0000
26.592    1.8440    0.6173    -1.0000
27.448    1.8437    0.6524    -1.0000
28.321    1.8433    0.6871    -1.0000
29.211    1.8403    0.7213    -1.0000
30.118    1.8372    0.7565    -1.0000
31.040    1.8343    0.7928    -1.0000
31.976    1.8367    0.8321    -1.0000
32.926    1.8364    0.8716    -1.0000
33.888    1.8267    0.9116    -1.0000
34.861    1.8135    0.9524    -1.0000
35.845    1.8060    0.9926    -1.0000
36.839    1.7986    1.0322    -1.0000
37.840    1.7895    1.0713    -1.0000
38.850    1.7784    1.1100    -1.0000
39.865    1.7657    1.1479    -1.0000
40.886    1.7491    1.1878    -1.0000
41.910    1.7305    1.2273    -1.0000
42.939    1.7103    1.2659    -1.0000
43.969    1.6885    1.3033    -1.0000
45.000    1.6654    1.3396    -1.0000
50.000    1.5342    1.4968    -1.0000
60.000    1.1670    1.6974    -1.0000
70.000    0.7304    1.7043    -1.0000
80.000    0.3087    1.5037    -1.0000
90.000    0.0000    1.2446    -1.0000
100.000    -0.1528    1.2051    -1.0000
110.000    -0.2956    1.0952    -1.0000
120.000    -0.4133    0.9278    -1.0000
130.000    -0.4963    0.7231    -1.0000
140.000    -0.5430    0.5056    -1.0000
150.000    -0.4953    0.3015    -1.0000
160.000    -0.3302    0.1350    -1.0000
170.000    -0.1651    0.0373    -1.0000
180.000    0.0000    0.0170    -1.0000
EOT 1
