AeroDyn airfoil file.  Compatible with AeroDyn v13.0.
This file was generated automatically by HARP_Opt.
This data represents a 27 percent thick airfoil, and was interpolated between the airfoil data in the files FFA_0300.dat and FFA_0240.dat.
  1           Number of airfoil tables in this file
 1.460         Table ID parameter (Reynolds number in millions)
12.538         Stall angle (deg)
  0           Zero lift angle of attack (deg)
  0           Cn slope for zero lift (dimensionless)
  0           Cn at stall value for positive angle of attack
  0           Cn at stall value for negative angle of attack
  0           Angle of attack for minimum CD (deg)
  0           Minimum CD value
-180.000    0.0000    0.0164    -1.0000
-170.000    0.1642    0.0348    -1.0000
-160.000    0.3284    0.1316    -1.0000
-150.000    0.4926    0.2985    -1.0000
-140.000    0.5414    0.5033    -1.0000
-130.000    0.4956    0.7215    -1.0000
-120.000    0.4131    0.9270    -1.0000
-110.000    0.2956    1.0951    -1.0000
-100.000    0.1529    1.2058    -1.0000
-90.000    0.0000    1.2460    -1.0000
-80.000    -0.1529    1.2058    -1.0000
-70.000    -0.2956    1.0951    -1.0000
-60.000    -0.4131    0.9270    -1.0000
-50.000    -0.4956    0.7215    -1.0000
-40.000    -0.5414    0.5033    -1.0000
-30.000    -0.5020    0.3301    -1.0000
-20.000    -0.3609    0.2133    -0.9366
-10.000    -0.2197    0.0965    -3.6944
-4.179    -0.1920    0.0286    -1.3775
-2.720    -0.0896    0.0231    -1.1032
-0.854    0.0867    0.0240    -1.0108
0.000    0.1857    0.0260    -1.1248
0.402    0.2329    0.0269    -1.1784
0.803    0.2805    0.0272    -1.2354
1.204    0.3273    0.0264    -1.2940
1.603    0.3733    0.0256    -1.3524
2.001    0.4196    0.0249    -1.4125
2.397    0.4696    0.0242    -1.4732
2.790    0.5229    0.0239    -1.5292
3.180    0.5748    0.0238    -1.5844
3.567    0.6212    0.0241    -1.6384
3.951    0.6633    0.0246    -1.6917
4.330    0.7086    0.0246    -1.7438
4.705    0.7575    0.0245    -1.7944
5.075    0.8008    0.0246    -1.8472
5.440    0.8417    0.0253    -1.8997
5.799    0.8836    0.0248    -1.9513
6.153    0.9291    0.0245    -2.0074
6.500    0.9650    0.0250    -2.0626
6.840    0.9939    0.0256    -2.1229
7.173    1.0260    0.0260    -2.1838
7.499    1.0566    0.0265    -2.2445
7.817    1.0826    0.0274    -2.3086
8.127    1.1064    0.0284    -2.3711
8.429    1.1270    0.0293    -2.4317
8.722    1.1560    0.0287    -2.4903
9.007    1.1865    0.0274    -2.5470
9.282    1.2099    0.0272    -2.6002
9.547    1.2279    0.0281    -2.6516
9.803    1.2442    0.0292    -2.6737
10.048    1.2586    0.0303    -2.6720
10.283    1.2706    0.0321    -2.6704
10.508    1.2819    0.0340    -2.6689
10.722    1.2927    0.0357    -2.6674
10.925    1.3031    0.0372    -2.6660
11.116    1.3125    0.0385    -2.6647
11.296    1.3214    0.0396    -2.6614
11.465    1.3297    0.0408    -2.6549
11.622    1.3374    0.0418    -2.6488
11.767    1.3424    0.0429    -2.6431
11.899    1.3466    0.0441    -2.6380
12.020    1.3503    0.0451    -2.6333
12.128    1.3537    0.0461    -2.6291
12.224    1.3567    0.0469    -2.6254
12.307    1.3593    0.0476    -2.6222
12.377    1.3615    0.0482    -2.6194
12.435    1.3633    0.0488    -2.6172
12.480    1.3647    0.0491    -2.6154
12.512    1.3657    0.0494    -2.6142
12.532    1.3663    0.0496    -2.6134
12.538    1.3666    0.0497    -2.6132
12.555    1.3643    0.0504    -2.6125
12.605    1.3576    0.0526    -2.6106
12.688    1.3464    0.0563    -2.6073
12.805    1.3307    0.0615    -2.6028
12.954    1.3105    0.0681    -2.5970
13.137    1.2860    0.0761    -2.5966
13.352    1.2570    0.0854    -2.6044
13.600    1.2236    0.0960    -2.6133
13.880    1.1859    0.1078    -2.6234
14.192    1.1525    0.1186    -2.6347
14.535    1.1257    0.1281    -2.6472
14.910    1.1178    0.1349    -2.6665
15.316    1.1089    0.1419    -2.6901
15.753    1.1003    0.1485    -2.7156
16.219    1.0990    0.1548    -2.7428
16.715    1.0981    0.1624    -2.7647
17.240    1.0966    0.1705    -2.7850
17.794    1.0897    0.1779    -2.8064
18.376    1.0742    0.1854    -2.8274
18.985    1.0589    0.1935    -2.8418
19.620    1.0504    0.2015    -2.8569
20.282    1.0413    0.2097    -2.8104
20.969    1.0244    0.2170    -2.3043
21.681    1.0091    0.2246    -1.7799
22.417    0.9982    0.2333    -1.4381
23.176    0.9829    0.2419    -1.2045
23.957    0.9677    0.2510    -1.0000
24.760    0.9543    0.2614    -1.0000
25.584    0.9416    0.2724    -1.0000
26.428    0.9253    0.2841    -1.0000
27.291    0.9048    0.2955    -1.0000
28.172    0.8834    0.3060    -1.0000
29.070    0.8632    0.3158    -1.0000
29.985    0.8469    0.3270    -1.0000
30.915    0.8327    0.3392    -1.0000
31.860    0.8289    0.3557    -1.0000
32.818    0.8241    0.3728    -1.0000
33.789    0.8093    0.3890    -1.0000
34.771    0.7892    0.4055    -1.0000
35.764    0.7834    0.4239    -1.0000
36.766    0.7806    0.4428    -1.0000
37.777    0.7778    0.4618    -1.0000
38.795    0.7750    0.4810    -1.0000
39.819    0.7720    0.5003    -1.0000
40.849    0.7664    0.5221    -1.0000
41.883    0.7600    0.5446    -1.0000
42.920    0.7536    0.5671    -1.0000
43.960    0.7472    0.5898    -1.0000
45.000    0.7408    0.6124    -1.0000
50.000    0.7081    0.7215    -1.0000
60.000    0.5901    0.9270    -1.0000
70.000    0.4223    1.0951    -1.0000
80.000    0.2184    1.2058    -1.0000
90.000    0.0000    1.2460    -1.0000
100.000    -0.1529    1.2058    -1.0000
110.000    -0.2956    1.0951    -1.0000
120.000    -0.4131    0.9270    -1.0000
130.000    -0.4956    0.7215    -1.0000
140.000    -0.5414    0.5033    -1.0000
150.000    -0.4926    0.2985    -1.0000
160.000    -0.3284    0.1316    -1.0000
170.000    -0.1642    0.0348    -1.0000
180.000    0.0000    0.0164    -1.0000
EOT 1
