AeroDyn airfoil file.  Compatible with AeroDyn v13.0.
This file was generated automatically by HARP_Opt.
This data represents a 23.1 percent thick airfoil, and was interpolated between the airfoil data in the files FFA_0240.dat and FFA_0210.dat.
  1           Number of airfoil tables in this file
 1.549         Table ID parameter (Reynolds number in millions)
13.988         Stall angle (deg)
  0           Zero lift angle of attack (deg)
  0           Cn slope for zero lift (dimensionless)
  0           Cn at stall value for positive angle of attack
  0           Cn at stall value for negative angle of attack
  0           Angle of attack for minimum CD (deg)
  0           Minimum CD value
-180.000    0.0000    0.0769    -1.0000
-170.000    0.2101    0.1131    -1.0000
-160.000    0.4199    0.2182    -1.0000
-150.000    0.6285    0.3789    -1.0000
-140.000    0.6133    0.5750    -1.0000
-130.000    0.5384    0.7824    -1.0000
-120.000    0.4366    0.9755    -1.0000
-110.000    0.3060    1.1294    -1.0000
-100.000    0.1555    1.2250    -1.0000
-90.000    0.0000    1.2494    -1.0000
-80.000    -0.1555    1.2250    -1.0000
-70.000    -0.3060    1.1294    -1.0000
-60.000    -0.4366    0.9755    -1.0000
-50.000    -0.5384    0.7824    -1.0000
-40.000    -0.6133    0.5750    -1.0000
-30.000    -0.6310    0.3945    -1.0000
-20.000    -0.4369    0.2469    -0.7230
-10.000    -0.2418    0.0995    -4.3499
-3.490    -0.1195    0.0126    -1.1497
-2.280    0.0457    0.0129    -0.9698
-1.050    0.1787    0.0133    -0.9641
0.000    0.2993    0.0138    -1.0357
0.448    0.3518    0.0139    -1.0853
0.896    0.4044    0.0139    -1.1396
1.343    0.4549    0.0142    -1.1986
1.789    0.5040    0.0145    -1.2641
2.232    0.5536    0.0149    -1.3294
2.674    0.6055    0.0151    -1.3916
3.113    0.6570    0.0152    -1.4525
3.548    0.7079    0.0157    -1.5126
3.980    0.7584    0.0162    -1.5715
4.408    0.8022    0.0169    -1.6298
4.831    0.8491    0.0173    -1.6899
5.249    0.9014    0.0174    -1.7523
5.662    0.9460    0.0177    -1.8196
6.069    0.9892    0.0180    -1.8951
6.470    1.0305    0.0186    -1.9762
6.864    1.0770    0.0192    -2.0628
7.251    1.1185    0.0197    -2.1540
7.631    1.1504    0.0203    -2.2486
8.003    1.1873    0.0205    -2.3537
8.366    1.2223    0.0207    -2.4598
8.721    1.2546    0.0213    -2.5668
9.067    1.2842    0.0220    -2.6714
9.404    1.3090    0.0226    -2.7714
9.731    1.3333    0.0231    -2.8681
10.048    1.3578    0.0227    -2.9491
10.355    1.3813    0.0223    -3.0178
10.651    1.4023    0.0226    -3.0842
10.936    1.4214    0.0233    -3.1328
11.210    1.4392    0.0240    -3.1785
11.473    1.4527    0.0260    -3.2223
11.723    1.4654    0.0281    -3.2642
11.962    1.4765    0.0301    -3.3040
12.188    1.4865    0.0319    -3.3418
12.402    1.4943    0.0335    -3.3766
12.603    1.5016    0.0350    -3.4019
12.791    1.5085    0.0363    -3.4255
12.966    1.5145    0.0376    -3.4475
13.127    1.5192    0.0389    -3.4678
13.275    1.5229    0.0404    -3.4865
13.410    1.5263    0.0417    -3.4990
13.531    1.5288    0.0429    -3.5067
13.637    1.5307    0.0439    -3.5135
13.730    1.5324    0.0448    -3.5193
13.809    1.5338    0.0456    -3.5243
13.873    1.5350    0.0463    -3.5284
13.923    1.5359    0.0468    -3.5316
13.959    1.5366    0.0471    -3.5339
13.981    1.5370    0.0474    -3.5353
13.988    1.5371    0.0474    -3.5357
14.004    1.5354    0.0480    -3.5367
14.052    1.5302    0.0498    -3.5398
14.131    1.5216    0.0528    -3.5448
14.243    1.5096    0.0570    -3.5519
14.386    1.4937    0.0626    -3.5610
14.560    1.4726    0.0706    -3.5772
14.766    1.4464    0.0800    -3.5969
15.002    1.4134    0.0908    -3.6196
15.270    1.3822    0.1015    -3.6452
15.568    1.3495    0.1130    -3.6735
15.896    1.3218    0.1243    -3.7044
16.254    1.3196    0.1319    -3.7382
16.642    1.3156    0.1400    -3.7747
17.059    1.3095    0.1470    -3.8140
17.505    1.3032    0.1540    -3.8651
17.979    1.2975    0.1620    -3.9202
18.480    1.2902    0.1702    -3.9684
19.009    1.2758    0.1786    -3.7950
19.565    1.2498    0.1874    -3.4917
20.147    1.2211    0.1958    -3.1969
20.754    1.2024    0.2037    -2.9957
21.386    1.1922    0.2133    -2.7862
22.042    1.1701    0.2234    -1.6542
22.723    1.1466    0.2331    -1.0000
23.425    1.1232    0.2434    -1.0000
24.151    1.1014    0.2568    -1.0000
24.897    1.0816    0.2723    -1.0000
25.664    1.0538    0.2856    -1.0000
26.451    1.0204    0.2989    -1.0000
27.258    0.9941    0.3147    -1.0000
28.082    0.9810    0.3336    -1.0000
28.924    0.9718    0.3527    -1.0000
29.782    0.9599    0.3694    -1.0000
30.656    0.9436    0.3838    -1.0000
31.544    0.9388    0.4025    -1.0000
32.447    0.9372    0.4219    -1.0000
33.362    0.9351    0.4406    -1.0000
34.290    0.9273    0.4592    -1.0000
35.228    0.9187    0.4781    -1.0000
36.176    0.9100    0.4972    -1.0000
37.134    0.9012    0.5165    -1.0000
38.099    0.8924    0.5359    -1.0000
39.072    0.8834    0.5554    -1.0000
40.050    0.8743    0.5752    -1.0000
41.034    0.8640    0.5957    -1.0000
42.022    0.8537    0.6164    -1.0000
43.013    0.8434    0.6371    -1.0000
44.006    0.8330    0.6579    -1.0000
45.000    0.8226    0.6787    -1.0000
50.000    0.7692    0.7824    -1.0000
60.000    0.6235    0.9753    -1.0000
70.000    0.4370    1.1293    -1.0000
80.000    0.2223    1.2250    -1.0000
90.000    0.0001    1.2494    -1.0000
100.000    -0.1557    1.2250    -1.0000
110.000    -0.3059    1.1296    -1.0000
120.000    -0.4364    0.9752    -1.0000
130.000    -0.5385    0.7824    -1.0000
140.000    -0.6131    0.5750    -1.0000
150.000    -0.6274    0.3790    -1.0000
160.000    -0.4200    0.2185    -1.0000
170.000    -0.2101    0.1133    -1.0000
180.000    0.0000    0.0769    -1.0000
EOT 1
