AeroDyn airfoil file.  Compatible with AeroDyn v13.0.
BW-3 Airfoil, Re=2.0 Million 198900, Smooth roughness, Fourth column is moment coefficient.
"...Low Reynolds Number Airfoil Data...", UIUC, Viterna used with aspect ratio=6.75, no 3D correction used
  5            Number of airfoil tables in this file
  3.9         Table ID parameter (Reynolds number in millions).  For efficiency, make very large if only one table.
  11.00     Stall angle (deg)				
  -0.3689   Zero Cn angle of attack (deg)				
   6.9838   Cn slope for zero lift (dimensionless)				
   1.3857   Cn extrapolated to value at positive stall angle of attack				
  -0.8000   Cn at stall value for negative angle of attack				
   2.00     Angle of attack for minimum CD (deg)				
   0.0116   Minimum CD value				
-180.00    0.000   0.0018   0.0000				
-170.00    0.657   0.0407   0.4000				
-160.00    0.523   0.1526   0.1817				
-150.00    0.526   0.3241   0.1872				
-140.00    0.527   0.5344   0.2141				
-130.00    0.493   0.7582   0.2476				
-120.00    0.417   0.9684   0.2803				
-110.00    0.301   1.1397   0.3066				
-100.00    0.157   1.2514   0.3217				
 -90.00    0.000   1.2900   0.3225				
 -80.00   -0.157   1.2514   0.3081				
 -70.00   -0.301   1.1397   0.2804				
 -60.00   -0.417   0.9684   0.2432				
 -50.00   -0.493   0.7582   0.2013				
 -40.00   -0.527   0.5344   0.1594				
 -30.00   -0.526   0.3241   0.1216				
 -20.00   -0.523   0.1526   0.0900				
 -10.00   -0.657   0.0407   0.0497				
  -2.00    0.187   0.0398   0.0000				
  -1.00    0.368   0.0275   0.0000				
   0.00    0.505   0.0202   0.0000				
   1.00    0.629   0.0156   0.0000				
   2.00    0.745   0.0132   0.0000				
   3.00    0.854   0.0123   0.0000
   4.00    0.949   0.0128   0.0000
   5.00    1.038   0.0145   0.0000
   6.00    1.118   0.0178   0.0000
   7.00    1.196   0.0209   0.0000
  10.00    0.939   0.0407  -0.0707
  20.00    0.747   0.1526  -0.1249
  30.00    0.751   0.3241  -0.1600
  40.00    0.753   0.5344  -0.1963
  50.00    0.705   0.7582  -0.2318
  60.00    0.596   0.9684  -0.2640
  70.00    0.431   1.1397  -0.2910
  80.00    0.225   1.2514  -0.3110
  90.00    0.000   1.2900  -0.3225
 100.00   -0.157   1.2514  -0.3217
 110.00   -0.301   1.1397  -0.3066
 120.00   -0.417   0.9684  -0.2803
 130.00   -0.493   0.7582  -0.2476
 140.00   -0.527   0.5344  -0.2141
 150.00   -0.526   0.3241  -0.1872
 160.00   -0.523   0.1526  -0.1817
 170.00   -0.657   0.0407  -0.5000
 180.00    0.000   0.0018   0.0000

  2.9         Table ID parameter (Reynolds number in millions).  For efficiency, make very large if only one table.
    11.00     Stall angle (deg)				
  -0.3689   Zero Cn angle of attack (deg)				
   6.9838   Cn slope for zero lift (dimensionless)				
   1.3857   Cn extrapolated to value at positive stall angle of attack				
  -0.8000   Cn at stall value for negative angle of attack				
   2.00     Angle of attack for minimum CD (deg)				
   0.0116   Minimum CD value				
-180.00    0.000   0.0022   0.0000				
-170.00    0.647   0.0411   0.4000				
-160.00    0.518   0.1530   0.1802				
-150.00    0.523   0.3244   0.1866				
-140.00    0.525   0.5347   0.2138				
-130.00    0.492   0.7584   0.2475				
-120.00    0.416   0.9686   0.2803				
-110.00    0.301   1.1399   0.3067				
-100.00    0.157   1.2515   0.3218				
 -90.00    0.000   1.2900   0.3225				
 -80.00   -0.157   1.2515   0.3081				
 -70.00   -0.301   1.1399   0.2804				
 -60.00   -0.416   0.9686   0.2432				
 -50.00   -0.492   0.7584   0.2012				
 -40.00   -0.525   0.5347   0.1592				
 -30.00   -0.523   0.3244   0.1211				
 -20.00   -0.518   0.1530   0.0893				
 -10.00   -0.647   0.0411   0.0489				
  -2.00    0.136   0.0428   0.0000				
  -1.00    0.346   0.0278   0.0000				
   0.00    0.481   0.0215   0.0000				
   1.00    0.607   0.0170   0.0000				
   2.00    0.722   0.0144   0.0000				
   3.00    0.832   0.0134   0.0000
   4.00    0.936   0.0133   0.0000
   5.00    1.028   0.0146   0.0000
   6.00    1.104   0.0177   0.0000
   7.00    1.175   0.0214   0.0000
  10.00    0.924   0.0411  -0.0697
  20.00    0.740   0.1530  -0.1239
  30.00    0.748   0.3244  -0.1594
  40.00    0.750   0.5347  -0.1960
  50.00    0.703   0.7584  -0.2316
  60.00    0.595   0.9686  -0.2639
  70.00    0.430   1.1399  -0.2910
  80.00    0.224   1.2515  -0.3110
  90.00    0.000   1.2900  -0.3225
 100.00   -0.157   1.2515  -0.3218
 110.00   -0.301   1.1399  -0.3067
 120.00   -0.416   0.9686  -0.2803
 130.00   -0.492   0.7584  -0.2475
 140.00   -0.525   0.5347  -0.2138
 150.00   -0.523   0.3244  -0.1866
 160.00   -0.518   0.1530  -0.1802
 170.00   -0.647   0.0411  -0.5000
 180.00    0.000   0.0022   0.0000

  2.0         Table ID parameter (Reynolds number in millions).  For efficiency, make very large if only one table.
    11.00     Stall angle (deg)				
  -0.3689   Zero Cn angle of attack (deg)				
   6.9838   Cn slope for zero lift (dimensionless)				
   1.3857   Cn extrapolated to value at positive stall angle of attack				
  -0.8000   Cn at stall value for negative angle of attack				
   2.00     Angle of attack for minimum CD (deg)				
   0.0116   Minimum CD value				
-180.00    0.000   0.0038   0.0000				
-170.00    0.631   0.0426   0.4000				
-160.00    0.511   0.1544   0.1781				
-150.00    0.519   0.3258   0.1856				
-140.00    0.523   0.5359   0.2134				
-130.00    0.491   0.7594   0.2474				
-120.00    0.416   0.9694   0.2804				
-110.00    0.301   1.1404   0.3067				
-100.00    0.157   1.2518   0.3218				
 -90.00    0.000   1.2900   0.3225				
 -80.00   -0.157   1.2518   0.3082				
 -70.00   -0.301   1.1404   0.2805				
 -60.00   -0.416   0.9694   0.2433				
 -50.00   -0.491   0.7594   0.2012				
 -40.00   -0.523   0.5359   0.1589				
 -30.00   -0.519   0.3258   0.1205				
 -20.00   -0.511   0.1544   0.0882				
 -10.00   -0.631   0.0426   0.0477				
  -2.00    0.043   0.0489   0.0000				
  -1.00    0.261   0.0339   0.0000				
   0.00    0.445   0.0237   0.0000				
   1.00    0.589   0.0182   0.0000				
   2.00    0.701   0.0164   0.0000				
   3.00    0.806   0.0155   0.0000
   4.00    0.905   0.0151   0.0000
   5.00    0.998   0.0149   0.0000
   6.00    1.075   0.0180   0.0000
   7.00    1.142   0.0229   0.0000
  10.00    0.902   0.0426  -0.0680
  20.00    0.729   0.1544  -0.1223
  30.00    0.741   0.3258  -0.1585
  40.00    0.747   0.5359  -0.1956
  50.00    0.701   0.7594  -0.2315
  60.00    0.594   0.9694  -0.2640
  70.00    0.430   1.1404  -0.2910
  80.00    0.224   1.2518  -0.3110
  90.00    0.000   1.2900  -0.3225
 100.00   -0.157   1.2518  -0.3218
 110.00   -0.301   1.1404  -0.3067
 120.00   -0.416   0.9694  -0.2804
 130.00   -0.491   0.7594  -0.2474
 140.00   -0.523   0.5359  -0.2134
 150.00   -0.519   0.3258  -0.1856
 160.00   -0.511   0.1544  -0.1781
 170.00   -0.631   0.0426  -0.5000
 180.00    0.000   0.0038   0.0000
 
  1.0         Table ID parameter (Reynolds number in millions).  For efficiency, make very large if only one table.
    11.00     Stall angle (deg)				
  -0.3689   Zero Cn angle of attack (deg)				
   6.9838   Cn slope for zero lift (dimensionless)				
   1.3857   Cn extrapolated to value at positive stall angle of attack				
  -0.8000   Cn at stall value for negative angle of attack				
   2.00     Angle of attack for minimum CD (deg)				
   0.0116   Minimum CD value				
-180.00    0.000   0.0016   0.0000				
-170.00    0.601   0.0405   0.4000				
-160.00    0.497   0.1524   0.1734				
-150.00    0.511   0.3239   0.1832				
-140.00    0.518   0.5342   0.2120				
-130.00    0.488   0.7580   0.2466				
-120.00    0.414   0.9683   0.2799				
-110.00    0.300   1.1396   0.3065				
-100.00    0.157   1.2514   0.3217				
 -90.00    0.000   1.2900   0.3225				
 -80.00   -0.157   1.2514   0.3081				
 -70.00   -0.300   1.1396   0.2803				
 -60.00   -0.414   0.9683   0.2429				
 -50.00   -0.488   0.7580   0.2005				
 -40.00   -0.518   0.5342   0.1579				
 -30.00   -0.511   0.3239   0.1190				
 -20.00   -0.497   0.1524   0.0859				
 -10.00   -0.601   0.0405   0.0455				
  -2.00   -0.138   0.0656   0.0000				
  -1.00    0.034   0.0497   0.0000				
   0.00    0.219   0.0376   0.0000				
   1.00    0.420   0.0296   0.0000				
   2.00    0.586   0.0265   0.0000				
   3.00    0.730   0.0242   0.0000
   4.00    0.838   0.0211   0.0000
   5.00    0.928   0.0192   0.0000
   6.00    1.009   0.0186   0.0000
   7.00    1.079   0.0208   0.0000
  10.00    0.858   0.0405  -0.0647
  20.00    0.709   0.1524  -0.1191
  30.00    0.730   0.3239  -0.1563
  40.00    0.739   0.5342  -0.1942
  50.00    0.697   0.7580  -0.2307
  60.00    0.592   0.9683  -0.2635
  70.00    0.429   1.1396  -0.2908
  80.00    0.224   1.2514  -0.3109
  90.00    0.000   1.2900  -0.3225
 100.00   -0.157   1.2514  -0.3217
 110.00   -0.300   1.1396  -0.3065
 120.00   -0.414   0.9683  -0.2799
 130.00   -0.488   0.7580  -0.2466
 140.00   -0.518   0.5342  -0.2120
 150.00   -0.511   0.3239  -0.1832
 160.00   -0.497   0.1524  -0.1734
 170.00   -0.601   0.0405  -0.5000
 180.00    0.000   0.0016   0.0000
 
  0.6         Table ID parameter (Reynolds number in millions).  For efficiency, make very large if only one table.
  11.00     Stall angle (deg)				
  -0.3689   Zero Cn angle of attack (deg)				
   6.9838   Cn slope for zero lift (dimensionless)				
   1.3857   Cn extrapolated to value at positive stall angle of attack				
  -0.8000   Cn at stall value for negative angle of attack				
   2.00     Angle of attack for minimum CD (deg)				
   0.0116   Minimum CD value				
-180.00    0.000   0.0029   0.0000				
-170.00    0.620   0.0418   0.4000				
-160.00    0.505   0.1536   0.1764				
-150.00    0.516   0.3250   0.1848				
-140.00    0.521   0.5352   0.2129				
-130.00    0.490   0.7589   0.2471				
-120.00    0.415   0.9690   0.2802				
-110.00    0.301   1.1401   0.3067				
-100.00    0.157   1.2516   0.3218				
 -90.00    0.000   1.2900   0.3225				
 -80.00   -0.157   1.2516   0.3081				
 -70.00   -0.301   1.1401   0.2804				
 -60.00   -0.415   0.9690   0.2431				
 -50.00   -0.490   0.7589   0.2009				
 -40.00   -0.521   0.5352   0.1586				
 -30.00   -0.516   0.3250   0.1200				
 -20.00   -0.505   0.1536   0.0874				
 -10.00   -0.620   0.0418   0.0469				
  -2.00   -0.069   0.0728   0.0000				
  -1.00    0.076   0.0557   0.0000				
   0.00    0.225   0.0425   0.0000				
   1.00    0.377   0.0342   0.0000				
   2.00    0.515   0.0330   0.0000				
   3.00    0.662   0.0315   0.0000
   4.00    0.831   0.0286   0.0000
   5.00    0.951   0.0255   0.0000
   6.00    1.048   0.0228   0.0000
   7.00    1.119   0.0220   0.0000
  10.00    0.886   0.0418  -0.0668
  20.00    0.722   0.1536  -0.1211
  30.00    0.737   0.3250  -0.1577
  40.00    0.744   0.5352  -0.1950
  50.00    0.699   0.7589  -0.2312
  60.00    0.593   0.9690  -0.2638
  70.00    0.429   1.1401  -0.2909
  80.00    0.224   1.2516  -0.3110
  90.00    0.000   1.2900  -0.3225
 100.00   -0.157   1.2516  -0.3218
 110.00   -0.301   1.1401  -0.3067
 120.00   -0.415   0.9690  -0.2802
 130.00   -0.490   0.7589  -0.2471
 140.00   -0.521   0.5352  -0.2129
 150.00   -0.516   0.3250  -0.1848
 160.00   -0.505   0.1536  -0.1764
 170.00   -0.620   0.0418  -0.5000
 180.00    0.000   0.0029   0.0000
 EOT

  

